--
-- -----------------------------------------------------------------------------
-- Office RUNSPEC (RUN) Data Section Version 2013.1 Jun 14 2013
-- -----------------------------------------------------------------------------
--
-- File: BLACK_OIL_RUN.INC
-- Created on: 18-Oct-2016 at: 21:42:03
--
-- *****************************************************************************
-- *                                  WARNING                                  *
-- *                THIS FILE HAS BEEN AUTOMATICALLY GENERATED.                *
-- *          ANY ATTEMPT TO EDIT MANUALLY MAY RESULT IN INVALID DATA.         *
-- *****************************************************************************
--
-- OFFICE-RUNSPEC-HEADER-DATA
RUNSPEC
TITLE
TITLE
START
 1 'JAN' 1983 /
FIELD
FMTIN
FMTOUT
GAS
OIL
WATER
DISGAS
MONITOR
RSSPEC
NOINSPEC
MSGFILE
 1 /
DIMENS
 50 50 1 /
EQLDIMS
 1 100 20 1 20 /
UNIFIN
UNIFOUT
REGDIMS
 1 1 0 0 /
TABDIMS
 1 1 20 20 1 20 10 1 /
WELLDIMS
 10   100    1    10  /
 
